*SPEF "IEEE 1481-1998"
*DESIGN "hybrid_chaotic_encryption"
*DATE "Sun May 25 22:14:12 2025"
*VENDOR "Cadence Design Systems, Inc."
*PROGRAM "Innovus"
*VERSION "20.10-p004_1"
*DESIGN_FLOW "COUPLING C" "PIN_CAP NONE" "NAME_SCOPE LOCAL"
*DIVIDER /
*DELIMITER :
*BUS_DELIMITER []
*T_UNIT 1 NS
*C_UNIT 1 PF
*R_UNIT 1 OHM
*L_UNIT 1 HENRY

// MMMC spef file for corner 'CWORST_T'

*NAME_MAP

*1 CTS_3
*2 CTS_2
*3 ran_seq_gen/logistic_core/FE_OFN3_n30
*4 ran_seq_gen/tent50_core/FE_OFN2_FE_DBTN10_alpha_0
*5 ran_seq_gen/tent50_core/div_25/FE_OFN1_FE_DBTN10_alpha_0
*6 ran_seq_gen/tent50_core/FE_OFN0_FE_DBTN10_alpha_0
*7 ran_seq_gen/tent50_core/FE_DBTN20_alpha_10
*8 ran_seq_gen/tent50_core/FE_DBTN19_alpha_9
*9 ran_seq_gen/tent50_core/FE_DBTN18_alpha_8
*10 ran_seq_gen/tent50_core/FE_DBTN17_alpha_7
*11 ran_seq_gen/tent50_core/FE_DBTN16_alpha_6
*12 ran_seq_gen/tent50_core/FE_DBTN15_alpha_5
*13 ran_seq_gen/tent50_core/FE_DBTN14_alpha_4
*14 ran_seq_gen/tent50_core/FE_DBTN13_alpha_3
*15 ran_seq_gen/FE_DBTN12_alpha_2
*16 ran_seq_gen/FE_DBTN11_alpha_1
*17 ran_seq_gen/tent50_core/FE_DBTN10_alpha_0
*18 ran_seq_gen/tent50_core/FE_DBTN9_key_in_out_1
*19 ran_seq_gen/logistic_core/FE_DBTN8_x_current_10
*20 ran_seq_gen/logistic_core/FE_DBTN7_x_current_9
*21 ran_seq_gen/logistic_core/FE_DBTN6_x_current_8
*22 ran_seq_gen/logistic_core/FE_DBTN5_x_current_7
*23 ran_seq_gen/logistic_core/FE_DBTN4_x_current_6
*24 ran_seq_gen/logistic_core/FE_DBTN3_x_current_5
*25 ran_seq_gen/logistic_core/FE_DBTN2_x_current_4
*26 ran_seq_gen/logistic_core/FE_DBTN1_x_current_3
*27 ran_seq_gen/logistic_core/FE_DBTN0_x_current_2
*28 plaintext[7]
*29 plaintext[6]
*30 plaintext[5]
*31 plaintext[4]
*32 plaintext[3]
*33 plaintext[2]
*34 plaintext[1]
*35 plaintext[0]
*36 key[33]
*37 key[32]
*38 key[31]
*39 key[30]
*40 key[29]
*41 key[28]
*42 key[27]
*43 key[26]
*44 key[25]
*45 key[24]
*46 key[23]
*47 key[22]
*48 key[21]
*49 key[20]
*50 key[19]
*51 key[18]
*52 key[17]
*53 key[16]
*54 key[15]
*55 key[14]
*56 key[13]
*57 key[12]
*58 key[11]
*59 key[10]
*60 key[9]
*61 key[8]
*62 key[7]
*63 key[6]
*64 key[5]
*65 key[4]
*66 key[3]
*67 key[2]
*68 key[1]
*69 key[0]
*70 ciphertext[7]
*71 ciphertext[6]
*72 ciphertext[5]
*73 ciphertext[4]
*74 ciphertext[3]
*75 ciphertext[2]
*76 ciphertext[1]
*77 ciphertext[0]
*78 clk
*79 rst_n
*80 key_valid_in
*81 plaintext_valid_in
*82 ciphertext_valid
*83 plaintext_valid_out
*84 done
*85 valid
*86 plaintext_in[7]
*87 plaintext_in[6]
*88 plaintext_in[5]
*89 plaintext_in[4]
*90 plaintext_in[3]
*91 plaintext_in[2]
*92 plaintext_in[1]
*93 plaintext_in[0]
*94 mu[11]
*95 mu[10]
*96 mu[9]
*97 mu[8]
*98 mu[7]
*99 mu[6]
*100 mu[5]
*101 mu[4]
*102 mu[3]
*103 mu[2]
*104 mu[1]
*105 mu[0]
*106 alpha[10]
*107 alpha[9]
*108 alpha[8]
*109 alpha[7]
*110 alpha[6]
*111 alpha[5]
*112 alpha[4]
*113 alpha[3]
*114 alpha[2]
*115 alpha[1]
*116 alpha[0]
*117 k[7]
*118 k[6]
*119 k[5]
*120 k[4]
*121 k[3]
*122 k[2]
*123 k[1]
*124 k[0]
*125 key_out[7]
*126 key_out[6]
*127 key_out[5]
*128 key_out[4]
*129 key_out[3]
*130 key_out[2]
*131 key_out[1]
*132 key_out[0]
*133 plaintext_out[7]
*134 plaintext_out[6]
*135 plaintext_out[5]
*136 plaintext_out[4]
*137 plaintext_out[3]
*138 plaintext_out[2]
*139 plaintext_out[1]
*140 plaintext_out[0]
*141 data_key_out[7]
*142 data_key_out[6]
*143 data_key_out[5]
*144 data_key_out[4]
*145 data_key_out[3]
*146 data_key_out[2]
*147 data_key_out[1]
*148 data_key_out[0]
*149 instruction[1]
*150 instruction[0]
*151 key_in_out[11]
*152 key_in_out[10]
*153 key_in_out[9]
*154 key_in_out[8]
*155 key_in_out[7]
*156 key_in_out[6]
*157 key_in_out[5]
*158 key_in_out[4]
*159 key_in_out[1]
*160 key_in_out[0]
*161 para_extract/N7
*162 para_extract/N8
*163 para_extract/N9
*164 para_extract/N10
*165 para_extract/N11
*166 para_extract/N12
*167 para_extract/N13
*168 para_extract/N14
*169 para_extract/N17
*170 para_extract/N18
*171 para_extract/N20
*172 para_extract/N21
*173 para_extract/N22
*174 para_extract/N23
*175 para_extract/N24
*176 para_extract/N25
*177 para_extract/N26
*178 para_extract/N28
*179 para_extract/N29
*180 para_extract/n10
*181 para_extract/n11
*182 para_extract/n12
*183 para_extract/n13
*184 para_extract/n14
*185 para_extract/n15
*186 para_extract/n16
*187 para_extract/n17
*188 para_extract/n20
*189 para_extract/n22
*190 para_extract/n23
*191 para_extract/n24
*192 para_extract/n25
*193 para_extract/n30
*194 para_extract/n31
*195 para_extract/n34
*196 para_extract/n35
*197 para_extract/n36
*198 para_extract/n37
*199 para_extract/n38
*200 para_extract/n39
*201 para_extract/n40
*202 para_extract/n41
*203 para_extract/n42
*204 para_extract/n43
*205 para_extract/n44
*206 para_extract/n45
*207 para_extract/n46
*208 para_extract/n47
*209 para_extract/n48
*210 para_extract/n49
*211 para_extract/n50
*212 para_extract/n51
*213 para_extract/n52
*214 para_extract/n53
*215 para_extract/n54
*216 para_extract/n55
*217 para_extract/n56
*218 para_extract/n60
*219 para_extract/n63
*220 para_extract/n64
*221 para_extract/n65
*222 para_extract/n66
*223 para_extract/n67
*224 para_extract/n68
*225 para_extract/n69
*226 para_extract/n70
*227 para_extract/n73
*228 para_extract/n74
*229 para_extract/n75
*230 para_extract/n76
*231 para_extract/n77
*232 para_extract/n78
*233 para_extract/n79
*234 para_extract/n80
*235 para_extract/n81
*236 para_extract/n82
*237 para_extract/n83
*238 para_extract/n84
*239 para_extract/n85
*240 para_extract/n86
*241 para_extract/n87
*242 para_extract/n88
*243 para_extract/n89
*244 para_extract/n90
*245 para_extract/n91
*246 para_extract/n92
*247 para_extract/n93
*248 para_extract/n94
*249 para_extract/n95
*250 para_extract/n96
*251 para_extract/n97
*252 para_extract/n98
*253 para_extract/add_31_carry_2_
*254 para_extract/add_31_carry_3_
*255 para_extract/add_31_carry_4_
*256 para_extract/add_31_carry_5_
*257 para_extract/add_31_carry_6_
*258 para_extract/add_31_carry_7_
*259 para_extract/add_30_carry_2_
*260 para_extract/add_30_carry_3_
*261 para_extract/add_30_carry_4_
*262 para_extract/add_30_carry_5_
*263 para_extract/add_30_carry_6_
*264 para_extract/add_30_carry_7_
*265 para_extract/n18
*266 para_extract/n27
*267 para_extract/n28
*268 para_extract/n29
*269 para_extract/n57
*270 para_extract/n58
*271 para_extract/n59
*272 para_extract/n61
*273 para_extract/n62
*274 para_extract/n99
*275 para_extract/n100
*276 para_extract/n101
*277 para_extract/n102
*278 para_extract/n103
*279 para_extract/n104
*280 para_extract/n105
*281 para_extract/n106
*282 para_extract/n107
*283 para_extract/n108
*284 para_extract/n109
*285 para_extract/n110
*286 para_extract/temp[7]
*287 para_extract/temp[6]
*288 para_extract/temp[5]
*289 para_extract/temp[4]
*290 para_extract/temp[3]
*291 para_extract/temp[2]
*292 para_extract/temp[1]
*293 para_extract/temp[0]
*294 data_ctrl/n2
*295 ran_seq_gen/flag1
*296 ran_seq_gen/done1
*297 ran_seq_gen/done2
*298 ran_seq_gen/flag2
*299 ran_seq_gen/done3
*300 ran_seq_gen/keystream_done
*301 ran_seq_gen/key1[11]
*302 ran_seq_gen/key1[10]
*303 ran_seq_gen/key1[9]
*304 ran_seq_gen/key1[8]
*305 ran_seq_gen/key1[7]
*306 ran_seq_gen/key1[6]
*307 ran_seq_gen/key1[5]
*308 ran_seq_gen/key1[4]
*309 ran_seq_gen/key1[3]
*310 ran_seq_gen/key1[2]
*311 ran_seq_gen/key1[1]
*312 ran_seq_gen/key1[0]
*313 ran_seq_gen/key2[7]
*314 ran_seq_gen/key2[6]
*315 ran_seq_gen/key2[5]
*316 ran_seq_gen/key2[4]
*317 ran_seq_gen/key2[3]
*318 ran_seq_gen/key2[2]
*319 ran_seq_gen/key2[1]
*320 ran_seq_gen/key2[0]
*321 ran_seq_gen/logistic_key_out[7]
*322 ran_seq_gen/logistic_key_out[6]
*323 ran_seq_gen/logistic_key_out[5]
*324 ran_seq_gen/logistic_key_out[4]
*325 ran_seq_gen/logistic_key_out[3]
*326 ran_seq_gen/logistic_key_out[2]
*327 ran_seq_gen/logistic_key_out[1]
*328 ran_seq_gen/logistic_key_out[0]
*329 ran_seq_gen/keystream_key_out[7]
*330 ran_seq_gen/keystream_key_out[6]
*331 ran_seq_gen/keystream_key_out[5]
*332 ran_seq_gen/keystream_key_out[4]
*333 ran_seq_gen/keystream_key_out[3]
*334 ran_seq_gen/keystream_key_out[2]
*335 ran_seq_gen/keystream_key_out[1]
*336 ran_seq_gen/keystream_key_out[0]
*337 ran_seq_gen/tent50_core/y_current_1
*338 ran_seq_gen/tent50_core/y_current_0
*339 ran_seq_gen/tent50_core/start
*340 ran_seq_gen/tent50_core/N36
*341 ran_seq_gen/tent50_core/N57
*342 ran_seq_gen/tent50_core/N58
*343 ran_seq_gen/tent50_core/N59
*344 ran_seq_gen/tent50_core/N60
*345 ran_seq_gen/tent50_core/N61
*346 ran_seq_gen/tent50_core/n43
*347 ran_seq_gen/tent50_core/n44
*348 ran_seq_gen/tent50_core/n45
*349 ran_seq_gen/tent50_core/n94
*350 ran_seq_gen/tent50_core/n95
*351 ran_seq_gen/tent50_core/n96
*352 ran_seq_gen/tent50_core/n97
*353 ran_seq_gen/tent50_core/n98
*354 ran_seq_gen/tent50_core/n99
*355 ran_seq_gen/tent50_core/n100
*356 ran_seq_gen/tent50_core/n101
*357 ran_seq_gen/tent50_core/n102
*358 ran_seq_gen/tent50_core/n103
*359 ran_seq_gen/tent50_core/n104
*360 ran_seq_gen/tent50_core/n105
*361 ran_seq_gen/tent50_core/n106
*362 ran_seq_gen/tent50_core/n107
*363 ran_seq_gen/tent50_core/n108
*364 ran_seq_gen/tent50_core/n109
*365 ran_seq_gen/tent50_core/n110
*366 ran_seq_gen/tent50_core/n111
*367 ran_seq_gen/tent50_core/n112
*368 ran_seq_gen/tent50_core/n113
*369 ran_seq_gen/tent50_core/n114
*370 ran_seq_gen/tent50_core/n115
*371 ran_seq_gen/tent50_core/n116
*372 ran_seq_gen/tent50_core/n117
*373 ran_seq_gen/tent50_core/n118
*374 ran_seq_gen/tent50_core/n119
*375 ran_seq_gen/tent50_core/n120
*376 ran_seq_gen/tent50_core/n121
*377 ran_seq_gen/tent50_core/n122
*378 ran_seq_gen/tent50_core/n123
*379 ran_seq_gen/tent50_core/n124
*380 ran_seq_gen/tent50_core/N9
*381 ran_seq_gen/tent50_core/N20
*382 ran_seq_gen/tent50_core/N19
*383 ran_seq_gen/tent50_core/N10
*384 ran_seq_gen/tent50_core/n3
*385 ran_seq_gen/tent50_core/n4
*386 ran_seq_gen/tent50_core/n5
*387 ran_seq_gen/tent50_core/n6
*388 ran_seq_gen/tent50_core/n7
*389 ran_seq_gen/tent50_core/n8
*390 ran_seq_gen/tent50_core/n9
*391 ran_seq_gen/tent50_core/n10
*392 ran_seq_gen/tent50_core/n11
*393 ran_seq_gen/tent50_core/n12
*394 ran_seq_gen/tent50_core/n13
*395 ran_seq_gen/tent50_core/n14
*396 ran_seq_gen/tent50_core/n15
*397 ran_seq_gen/tent50_core/n16
*398 ran_seq_gen/tent50_core/n17
*399 ran_seq_gen/tent50_core/n18
*400 ran_seq_gen/tent50_core/n19
*401 ran_seq_gen/tent50_core/n20
*402 ran_seq_gen/tent50_core/n21
*403 ran_seq_gen/tent50_core/n22
*404 ran_seq_gen/tent50_core/n23
*405 ran_seq_gen/tent50_core/n24
*406 ran_seq_gen/tent50_core/n25
*407 ran_seq_gen/tent50_core/n26
*408 ran_seq_gen/tent50_core/n27
*409 ran_seq_gen/tent50_core/n28
*410 ran_seq_gen/tent50_core/n29
*411 ran_seq_gen/tent50_core/n30
*412 ran_seq_gen/tent50_core/n31
*413 ran_seq_gen/tent50_core/n32
*414 ran_seq_gen/tent50_core/n33
*415 ran_seq_gen/tent50_core/n34
*416 ran_seq_gen/tent50_core/n35
*417 ran_seq_gen/tent50_core/n36
*418 ran_seq_gen/tent50_core/n37
*419 ran_seq_gen/tent50_core/n38
*420 ran_seq_gen/tent50_core/n39
*421 ran_seq_gen/tent50_core/n40
*422 ran_seq_gen/tent50_core/n41
*423 ran_seq_gen/tent50_core/n42
*424 ran_seq_gen/tent50_core/n46
*425 ran_seq_gen/tent50_core/n47
*426 ran_seq_gen/tent50_core/n48
*427 ran_seq_gen/tent50_core/n49
*428 ran_seq_gen/tent50_core/n50
*429 ran_seq_gen/tent50_core/n51
*430 ran_seq_gen/tent50_core/n52
*431 ran_seq_gen/tent50_core/n53
*432 ran_seq_gen/tent50_core/n54
*433 ran_seq_gen/tent50_core/n55
*434 ran_seq_gen/tent50_core/n56
*435 ran_seq_gen/tent50_core/n58
*436 ran_seq_gen/tent50_core/n60
*437 ran_seq_gen/tent50_core/n61
*438 ran_seq_gen/tent50_core/n62
*439 ran_seq_gen/tent50_core/n63
*440 ran_seq_gen/tent50_core/n64
*441 ran_seq_gen/tent50_core/n66
*442 ran_seq_gen/tent50_core/n67
*443 ran_seq_gen/tent50_core/n68
*444 ran_seq_gen/tent50_core/n69
*445 ran_seq_gen/tent50_core/n70
*446 ran_seq_gen/tent50_core/n71
*447 ran_seq_gen/tent50_core/n72
*448 ran_seq_gen/tent50_core/n73
*449 ran_seq_gen/tent50_core/n74
*450 ran_seq_gen/tent50_core/n76
*451 ran_seq_gen/tent50_core/n77
*452 ran_seq_gen/tent50_core/n78
*453 ran_seq_gen/tent50_core/n79
*454 ran_seq_gen/tent50_core/n80
*455 ran_seq_gen/tent50_core/n81
*456 ran_seq_gen/tent50_core/n84
*457 ran_seq_gen/tent50_core/n85
*458 ran_seq_gen/tent50_core/n86
*459 ran_seq_gen/tent50_core/n87
*460 ran_seq_gen/tent50_core/n88
*461 ran_seq_gen/tent50_core/n89
*462 ran_seq_gen/tent50_core/n90
*463 ran_seq_gen/tent50_core/n91
*464 ran_seq_gen/tent50_core/n92
*465 ran_seq_gen/tent50_core/n93
*466 ran_seq_gen/tent50_core/n125
*467 ran_seq_gen/tent50_core/n126
*468 ran_seq_gen/tent50_core/n127
*469 ran_seq_gen/tent50_core/n128
*470 ran_seq_gen/tent50_core/n129
*471 ran_seq_gen/tent50_core/n130
*472 ran_seq_gen/tent50_core/n131
*473 ran_seq_gen/tent50_core/y_current[11]
*474 ran_seq_gen/tent50_core/y_current[10]
*475 ran_seq_gen/tent50_core/y_nxt[11]
*476 ran_seq_gen/tent50_core/y_nxt[10]
*477 ran_seq_gen/tent50_core/y_nxt[9]
*478 ran_seq_gen/tent50_core/y_nxt[8]
*479 ran_seq_gen/tent50_core/y_nxt[7]
*480 ran_seq_gen/tent50_core/y_nxt[6]
*481 ran_seq_gen/tent50_core/y_nxt[5]
*482 ran_seq_gen/tent50_core/y_nxt[4]
*483 ran_seq_gen/tent50_core/y_nxt[3]
*484 ran_seq_gen/tent50_core/y_nxt[2]
*485 ran_seq_gen/tent50_core/y_nxt[1]
*486 ran_seq_gen/tent50_core/y_nxt[0]
*487 ran_seq_gen/tent50_core/one_minus_y[11]
*488 ran_seq_gen/tent50_core/one_minus_y[10]
*489 ran_seq_gen/tent50_core/one_minus_y[9]
*490 ran_seq_gen/tent50_core/one_minus_y[8]
*491 ran_seq_gen/tent50_core/one_minus_y[7]
*492 ran_seq_gen/tent50_core/one_minus_y[6]
*493 ran_seq_gen/tent50_core/one_minus_y[5]
*494 ran_seq_gen/tent50_core/one_minus_y[4]
*495 ran_seq_gen/tent50_core/one_minus_y[3]
*496 ran_seq_gen/tent50_core/one_minus_y[2]
*497 ran_seq_gen/tent50_core/one_minus_y[1]
*498 ran_seq_gen/tent50_core/one_minus_alpha[11]
*499 ran_seq_gen/tent50_core/one_minus_alpha[10]
*500 ran_seq_gen/tent50_core/one_minus_alpha[9]
*501 ran_seq_gen/tent50_core/one_minus_alpha[8]
*502 ran_seq_gen/tent50_core/one_minus_alpha[7]
*503 ran_seq_gen/tent50_core/one_minus_alpha[6]
*504 ran_seq_gen/tent50_core/one_minus_alpha[5]
*505 ran_seq_gen/tent50_core/one_minus_alpha[4]
*506 ran_seq_gen/tent50_core/one_minus_alpha[3]
*507 ran_seq_gen/tent50_core/one_minus_alpha[2]
*508 ran_seq_gen/tent50_core/one_minus_alpha[1]
*509 ran_seq_gen/tent50_core/div1[11]
*510 ran_seq_gen/tent50_core/div1[10]
*511 ran_seq_gen/tent50_core/div1[9]
*512 ran_seq_gen/tent50_core/div1[8]
*513 ran_seq_gen/tent50_core/div1[7]
*514 ran_seq_gen/tent50_core/div1[6]
*515 ran_seq_gen/tent50_core/div1[5]
*516 ran_seq_gen/tent50_core/div1[4]
*517 ran_seq_gen/tent50_core/div1[3]
*518 ran_seq_gen/tent50_core/div1[2]
*519 ran_seq_gen/tent50_core/div1[1]
*520 ran_seq_gen/tent50_core/div1[0]
*521 ran_seq_gen/tent50_core/div2[11]
*522 ran_seq_gen/tent50_core/div2[10]
*523 ran_seq_gen/tent50_core/div2[9]
*524 ran_seq_gen/tent50_core/div2[8]
*525 ran_seq_gen/tent50_core/div2[7]
*526 ran_seq_gen/tent50_core/div2[6]
*527 ran_seq_gen/tent50_core/div2[5]
*528 ran_seq_gen/tent50_core/div2[4]
*529 ran_seq_gen/tent50_core/div2[3]
*530 ran_seq_gen/tent50_core/div2[2]
*531 ran_seq_gen/tent50_core/div2[1]
*532 ran_seq_gen/tent50_core/div2[0]
*533 ran_seq_gen/tent50_core/iter_count[5]
*534 ran_seq_gen/tent50_core/iter_count[4]
*535 ran_seq_gen/tent50_core/iter_count[3]
*536 ran_seq_gen/tent50_core/iter_count[2]
*537 ran_seq_gen/tent50_core/iter_count[1]
*538 ran_seq_gen/tent50_core/iter_count[0]
*539 ran_seq_gen/tent50_core/add_47_carry[5]
*540 ran_seq_gen/tent50_core/add_47_carry[4]
*541 ran_seq_gen/tent50_core/add_47_carry[3]
*542 ran_seq_gen/tent50_core/add_47_carry[2]
*543 ran_seq_gen/tent50_core/div_25/u_div_SumTmp_1__1_
*544 ran_seq_gen/tent50_core/div_25/u_div_SumTmp_1__2_
*545 ran_seq_gen/tent50_core/div_25/u_div_SumTmp_1__3_
*546 ran_seq_gen/tent50_core/div_25/u_div_SumTmp_1__4_
*547 ran_seq_gen/tent50_core/div_25/u_div_SumTmp_1__5_
*548 ran_seq_gen/tent50_core/div_25/u_div_SumTmp_1__6_
*549 ran_seq_gen/tent50_core/div_25/u_div_SumTmp_1__7_
*550 ran_seq_gen/tent50_core/div_25/u_div_SumTmp_1__8_
*551 ran_seq_gen/tent50_core/div_25/u_div_SumTmp_1__9_
*552 ran_seq_gen/tent50_core/div_25/u_div_SumTmp_1__10_
*553 ran_seq_gen/tent50_core/div_25/u_div_SumTmp_1__11_
*554 ran_seq_gen/tent50_core/div_25/u_div_SumTmp_2__1_
*555 ran_seq_gen/tent50_core/div_25/u_div_SumTmp_2__2_
*556 ran_seq_gen/tent50_core/div_25/u_div_SumTmp_2__3_
*557 ran_seq_gen/tent50_core/div_25/u_div_SumTmp_2__4_
*558 ran_seq_gen/tent50_core/div_25/u_div_SumTmp_2__5_
*559 ran_seq_gen/tent50_core/div_25/u_div_SumTmp_2__6_
*560 ran_seq_gen/tent50_core/div_25/u_div_SumTmp_2__7_
*561 ran_seq_gen/tent50_core/div_25/u_div_SumTmp_2__8_
*562 ran_seq_gen/tent50_core/div_25/u_div_SumTmp_2__9_
*563 ran_seq_gen/tent50_core/div_25/u_div_SumTmp_2__10_
*564 ran_seq_gen/tent50_core/div_25/u_div_SumTmp_2__11_
*565 ran_seq_gen/tent50_core/div_25/u_div_SumTmp_3__1_
*566 ran_seq_gen/tent50_core/div_25/u_div_SumTmp_3__2_
*567 ran_seq_gen/tent50_core/div_25/u_div_SumTmp_3__3_
*568 ran_seq_gen/tent50_core/div_25/u_div_SumTmp_3__4_
*569 ran_seq_gen/tent50_core/div_25/u_div_SumTmp_3__5_
*570 ran_seq_gen/tent50_core/div_25/u_div_SumTmp_3__6_
*571 ran_seq_gen/tent50_core/div_25/u_div_SumTmp_3__7_
*572 ran_seq_gen/tent50_core/div_25/u_div_SumTmp_3__8_
*573 ran_seq_gen/tent50_core/div_25/u_div_SumTmp_3__9_
*574 ran_seq_gen/tent50_core/div_25/u_div_SumTmp_3__10_
*575 ran_seq_gen/tent50_core/div_25/u_div_SumTmp_3__11_
*576 ran_seq_gen/tent50_core/div_25/u_div_SumTmp_4__1_
*577 ran_seq_gen/tent50_core/div_25/u_div_SumTmp_4__2_
*578 ran_seq_gen/tent50_core/div_25/u_div_SumTmp_4__3_
*579 ran_seq_gen/tent50_core/div_25/u_div_SumTmp_4__4_
*580 ran_seq_gen/tent50_core/div_25/u_div_SumTmp_4__5_
*581 ran_seq_gen/tent50_core/div_25/u_div_SumTmp_4__6_
*582 ran_seq_gen/tent50_core/div_25/u_div_SumTmp_4__7_
*583 ran_seq_gen/tent50_core/div_25/u_div_SumTmp_4__8_
*584 ran_seq_gen/tent50_core/div_25/u_div_SumTmp_4__9_
*585 ran_seq_gen/tent50_core/div_25/u_div_SumTmp_4__10_
*586 ran_seq_gen/tent50_core/div_25/u_div_SumTmp_4__11_
*587 ran_seq_gen/tent50_core/div_25/u_div_SumTmp_5__1_
*588 ran_seq_gen/tent50_core/div_25/u_div_SumTmp_5__2_
*589 ran_seq_gen/tent50_core/div_25/u_div_SumTmp_5__3_
*590 ran_seq_gen/tent50_core/div_25/u_div_SumTmp_5__4_
*591 ran_seq_gen/tent50_core/div_25/u_div_SumTmp_5__5_
*592 ran_seq_gen/tent50_core/div_25/u_div_SumTmp_5__6_
*593 ran_seq_gen/tent50_core/div_25/u_div_SumTmp_5__7_
*594 ran_seq_gen/tent50_core/div_25/u_div_SumTmp_5__8_
*595 ran_seq_gen/tent50_core/div_25/u_div_SumTmp_5__9_
*596 ran_seq_gen/tent50_core/div_25/u_div_SumTmp_5__10_
*597 ran_seq_gen/tent50_core/div_25/u_div_SumTmp_5__11_
*598 ran_seq_gen/tent50_core/div_25/u_div_SumTmp_6__1_
*599 ran_seq_gen/tent50_core/div_25/u_div_SumTmp_6__2_
*600 ran_seq_gen/tent50_core/div_25/u_div_SumTmp_6__3_
*601 ran_seq_gen/tent50_core/div_25/u_div_SumTmp_6__4_
*602 ran_seq_gen/tent50_core/div_25/u_div_SumTmp_6__5_
*603 ran_seq_gen/tent50_core/div_25/u_div_SumTmp_6__6_
*604 ran_seq_gen/tent50_core/div_25/u_div_SumTmp_6__7_
*605 ran_seq_gen/tent50_core/div_25/u_div_SumTmp_6__8_
*606 ran_seq_gen/tent50_core/div_25/u_div_SumTmp_6__9_
*607 ran_seq_gen/tent50_core/div_25/u_div_SumTmp_6__10_
*608 ran_seq_gen/tent50_core/div_25/u_div_SumTmp_6__11_
*609 ran_seq_gen/tent50_core/div_25/u_div_SumTmp_7__1_
*610 ran_seq_gen/tent50_core/div_25/u_div_SumTmp_7__2_
*611 ran_seq_gen/tent50_core/div_25/u_div_SumTmp_7__3_
*612 ran_seq_gen/tent50_core/div_25/u_div_SumTmp_7__4_
*613 ran_seq_gen/tent50_core/div_25/u_div_SumTmp_7__5_
*614 ran_seq_gen/tent50_core/div_25/u_div_SumTmp_7__6_
*615 ran_seq_gen/tent50_core/div_25/u_div_SumTmp_7__7_
*616 ran_seq_gen/tent50_core/div_25/u_div_SumTmp_7__8_
*617 ran_seq_gen/tent50_core/div_25/u_div_SumTmp_7__9_
*618 ran_seq_gen/tent50_core/div_25/u_div_SumTmp_7__10_
*619 ran_seq_gen/tent50_core/div_25/u_div_SumTmp_7__11_
*620 ran_seq_gen/tent50_core/div_25/u_div_SumTmp_8__1_
*621 ran_seq_gen/tent50_core/div_25/u_div_SumTmp_8__2_
*622 ran_seq_gen/tent50_core/div_25/u_div_SumTmp_8__3_
*623 ran_seq_gen/tent50_core/div_25/u_div_SumTmp_8__4_
*624 ran_seq_gen/tent50_core/div_25/u_div_SumTmp_8__5_
*625 ran_seq_gen/tent50_core/div_25/u_div_SumTmp_8__6_
*626 ran_seq_gen/tent50_core/div_25/u_div_SumTmp_8__7_
*627 ran_seq_gen/tent50_core/div_25/u_div_SumTmp_8__8_
*628 ran_seq_gen/tent50_core/div_25/u_div_SumTmp_8__9_
*629 ran_seq_gen/tent50_core/div_25/u_div_SumTmp_8__10_
*630 ran_seq_gen/tent50_core/div_25/u_div_SumTmp_8__11_
*631 ran_seq_gen/tent50_core/div_25/u_div_SumTmp_9__1_
*632 ran_seq_gen/tent50_core/div_25/u_div_SumTmp_9__2_
*633 ran_seq_gen/tent50_core/div_25/u_div_SumTmp_9__3_
*634 ran_seq_gen/tent50_core/div_25/u_div_SumTmp_9__4_
*635 ran_seq_gen/tent50_core/div_25/u_div_SumTmp_9__5_
*636 ran_seq_gen/tent50_core/div_25/u_div_SumTmp_9__6_
*637 ran_seq_gen/tent50_core/div_25/u_div_SumTmp_9__7_
*638 ran_seq_gen/tent50_core/div_25/u_div_SumTmp_9__8_
*639 ran_seq_gen/tent50_core/div_25/u_div_SumTmp_9__9_
*640 ran_seq_gen/tent50_core/div_25/u_div_SumTmp_9__10_
*641 ran_seq_gen/tent50_core/div_25/u_div_SumTmp_9__11_
*642 ran_seq_gen/tent50_core/div_25/u_div_SumTmp_10__1_
*643 ran_seq_gen/tent50_core/div_25/u_div_SumTmp_10__2_
*644 ran_seq_gen/tent50_core/div_25/u_div_SumTmp_10__3_
*645 ran_seq_gen/tent50_core/div_25/u_div_SumTmp_10__4_
*646 ran_seq_gen/tent50_core/div_25/u_div_SumTmp_10__5_
*647 ran_seq_gen/tent50_core/div_25/u_div_SumTmp_10__6_
*648 ran_seq_gen/tent50_core/div_25/u_div_SumTmp_10__7_
*649 ran_seq_gen/tent50_core/div_25/u_div_SumTmp_10__8_
*650 ran_seq_gen/tent50_core/div_25/u_div_SumTmp_10__9_
*651 ran_seq_gen/tent50_core/div_25/u_div_SumTmp_10__10_
*652 ran_seq_gen/tent50_core/div_25/u_div_SumTmp_10__11_
*653 ran_seq_gen/tent50_core/div_25/u_div_SumTmp_11__1_
*654 ran_seq_gen/tent50_core/div_25/u_div_SumTmp_11__2_
*655 ran_seq_gen/tent50_core/div_25/u_div_SumTmp_11__3_
*656 ran_seq_gen/tent50_core/div_25/u_div_SumTmp_11__4_
*657 ran_seq_gen/tent50_core/div_25/u_div_SumTmp_11__5_
*658 ran_seq_gen/tent50_core/div_25/u_div_SumTmp_11__6_
*659 ran_seq_gen/tent50_core/div_25/u_div_SumTmp_11__7_
*660 ran_seq_gen/tent50_core/div_25/u_div_SumTmp_11__8_
*661 ran_seq_gen/tent50_core/div_25/u_div_SumTmp_11__9_
*662 ran_seq_gen/tent50_core/div_25/u_div_SumTmp_11__10_
*663 ran_seq_gen/tent50_core/div_25/u_div_SumTmp_11__11_
*664 ran_seq_gen/tent50_core/div_25/u_div_SumTmp_12__0_
*665 ran_seq_gen/tent50_core/div_25/u_div_SumTmp_12__1_
*666 ran_seq_gen/tent50_core/div_25/u_div_SumTmp_12__2_
*667 ran_seq_gen/tent50_core/div_25/u_div_SumTmp_12__3_
*668 ran_seq_gen/tent50_core/div_25/u_div_SumTmp_12__4_
*669 ran_seq_gen/tent50_core/div_25/u_div_SumTmp_12__5_
*670 ran_seq_gen/tent50_core/div_25/u_div_SumTmp_12__6_
*671 ran_seq_gen/tent50_core/div_25/u_div_SumTmp_12__7_
*672 ran_seq_gen/tent50_core/div_25/u_div_SumTmp_12__8_
*673 ran_seq_gen/tent50_core/div_25/u_div_SumTmp_12__9_
*674 ran_seq_gen/tent50_core/div_25/u_div_SumTmp_12__10_
*675 ran_seq_gen/tent50_core/div_25/u_div_SumTmp_12__11_
*676 ran_seq_gen/tent50_core/div_25/u_div_SumTmp_13__0_
*677 ran_seq_gen/tent50_core/div_25/u_div_SumTmp_13__1_
*678 ran_seq_gen/tent50_core/div_25/u_div_SumTmp_13__2_
*679 ran_seq_gen/tent50_core/div_25/u_div_SumTmp_13__3_
*680 ran_seq_gen/tent50_core/div_25/u_div_SumTmp_13__4_
*681 ran_seq_gen/tent50_core/div_25/u_div_SumTmp_13__5_
*682 ran_seq_gen/tent50_core/div_25/u_div_SumTmp_13__6_
*683 ran_seq_gen/tent50_core/div_25/u_div_SumTmp_13__7_
*684 ran_seq_gen/tent50_core/div_25/u_div_SumTmp_13__8_
*685 ran_seq_gen/tent50_core/div_25/u_div_SumTmp_13__9_
*686 ran_seq_gen/tent50_core/div_25/u_div_SumTmp_13__10_
*687 ran_seq_gen/tent50_core/div_25/u_div_SumTmp_14__0_
*688 ran_seq_gen/tent50_core/div_25/u_div_SumTmp_14__1_
*689 ran_seq_gen/tent50_core/div_25/u_div_SumTmp_14__2_
*690 ran_seq_gen/tent50_core/div_25/u_div_SumTmp_14__3_
*691 ran_seq_gen/tent50_core/div_25/u_div_SumTmp_14__4_
*692 ran_seq_gen/tent50_core/div_25/u_div_SumTmp_14__5_
*693 ran_seq_gen/tent50_core/div_25/u_div_SumTmp_14__6_
*694 ran_seq_gen/tent50_core/div_25/u_div_SumTmp_14__7_
*695 ran_seq_gen/tent50_core/div_25/u_div_SumTmp_14__8_
*696 ran_seq_gen/tent50_core/div_25/u_div_SumTmp_14__9_
*697 ran_seq_gen/tent50_core/div_25/u_div_SumTmp_15__0_
*698 ran_seq_gen/tent50_core/div_25/u_div_SumTmp_15__1_
*699 ran_seq_gen/tent50_core/div_25/u_div_SumTmp_15__2_
*700 ran_seq_gen/tent50_core/div_25/u_div_SumTmp_15__3_
*701 ran_seq_gen/tent50_core/div_25/u_div_SumTmp_15__4_
*702 ran_seq_gen/tent50_core/div_25/u_div_SumTmp_15__5_
*703 ran_seq_gen/tent50_core/div_25/u_div_SumTmp_15__6_
*704 ran_seq_gen/tent50_core/div_25/u_div_SumTmp_15__7_
*705 ran_seq_gen/tent50_core/div_25/u_div_SumTmp_15__8_
*706 ran_seq_gen/tent50_core/div_25/u_div_SumTmp_16__0_
*707 ran_seq_gen/tent50_core/div_25/u_div_SumTmp_16__1_
*708 ran_seq_gen/tent50_core/div_25/u_div_SumTmp_16__2_
*709 ran_seq_gen/tent50_core/div_25/u_div_SumTmp_16__3_
*710 ran_seq_gen/tent50_core/div_25/u_div_SumTmp_16__4_
*711 ran_seq_gen/tent50_core/div_25/u_div_SumTmp_16__5_
*712 ran_seq_gen/tent50_core/div_25/u_div_SumTmp_16__6_
*713 ran_seq_gen/tent50_core/div_25/u_div_SumTmp_16__7_
*714 ran_seq_gen/tent50_core/div_25/u_div_SumTmp_17__0_
*715 ran_seq_gen/tent50_core/div_25/u_div_SumTmp_17__1_
*716 ran_seq_gen/tent50_core/div_25/u_div_SumTmp_17__2_
*717 ran_seq_gen/tent50_core/div_25/u_div_SumTmp_17__3_
*718 ran_seq_gen/tent50_core/div_25/u_div_SumTmp_17__4_
*719 ran_seq_gen/tent50_core/div_25/u_div_SumTmp_17__5_
*720 ran_seq_gen/tent50_core/div_25/u_div_SumTmp_17__6_
*721 ran_seq_gen/tent50_core/div_25/u_div_SumTmp_18__0_
*722 ran_seq_gen/tent50_core/div_25/u_div_SumTmp_18__1_
*723 ran_seq_gen/tent50_core/div_25/u_div_SumTmp_18__2_
*724 ran_seq_gen/tent50_core/div_25/u_div_SumTmp_18__3_
*725 ran_seq_gen/tent50_core/div_25/u_div_SumTmp_18__4_
*726 ran_seq_gen/tent50_core/div_25/u_div_SumTmp_18__5_
*727 ran_seq_gen/tent50_core/div_25/u_div_SumTmp_19__0_
*728 ran_seq_gen/tent50_core/div_25/u_div_SumTmp_19__1_
*729 ran_seq_gen/tent50_core/div_25/u_div_SumTmp_19__2_
*730 ran_seq_gen/tent50_core/div_25/u_div_SumTmp_19__3_
*731 ran_seq_gen/tent50_core/div_25/u_div_SumTmp_19__4_
*732 ran_seq_gen/tent50_core/div_25/u_div_SumTmp_20__0_
*733 ran_seq_gen/tent50_core/div_25/u_div_SumTmp_20__1_
*734 ran_seq_gen/tent50_core/div_25/u_div_SumTmp_20__2_
*735 ran_seq_gen/tent50_core/div_25/u_div_SumTmp_20__3_
*736 ran_seq_gen/tent50_core/div_25/u_div_SumTmp_21__0_
*737 ran_seq_gen/tent50_core/div_25/u_div_SumTmp_21__1_
*738 ran_seq_gen/tent50_core/div_25/u_div_SumTmp_21__2_
*739 ran_seq_gen/tent50_core/div_25/u_div_SumTmp_22__0_
*740 ran_seq_gen/tent50_core/div_25/u_div_SumTmp_22__1_
*741 ran_seq_gen/tent50_core/div_25/u_div_SumTmp_23__0_
*742 ran_seq_gen/tent50_core/div_25/u_div_CryTmp_0__2_
*743 ran_seq_gen/tent50_core/div_25/u_div_CryTmp_0__3_
*744 ran_seq_gen/tent50_core/div_25/u_div_CryTmp_0__4_
*745 ran_seq_gen/tent50_core/div_25/u_div_CryTmp_0__5_
*746 ran_seq_gen/tent50_core/div_25/u_div_CryTmp_0__6_
*747 ran_seq_gen/tent50_core/div_25/u_div_CryTmp_0__7_
*748 ran_seq_gen/tent50_core/div_25/u_div_CryTmp_0__8_
*749 ran_seq_gen/tent50_core/div_25/u_div_CryTmp_0__9_
*750 ran_seq_gen/tent50_core/div_25/u_div_CryTmp_0__10_
*751 ran_seq_gen/tent50_core/div_25/u_div_CryTmp_0__11_
*752 ran_seq_gen/tent50_core/div_25/u_div_CryTmp_0__12_
*753 ran_seq_gen/tent50_core/div_25/u_div_CryTmp_1__2_
*754 ran_seq_gen/tent50_core/div_25/u_div_CryTmp_1__3_
*755 ran_seq_gen/tent50_core/div_25/u_div_CryTmp_1__4_
*756 ran_seq_gen/tent50_core/div_25/u_div_CryTmp_1__5_
*757 ran_seq_gen/tent50_core/div_25/u_div_CryTmp_1__6_
*758 ran_seq_gen/tent50_core/div_25/u_div_CryTmp_1__7_
*759 ran_seq_gen/tent50_core/div_25/u_div_CryTmp_1__8_
*760 ran_seq_gen/tent50_core/div_25/u_div_CryTmp_1__9_
*761 ran_seq_gen/tent50_core/div_25/u_div_CryTmp_1__10_
*762 ran_seq_gen/tent50_core/div_25/u_div_CryTmp_1__11_
*763 ran_seq_gen/tent50_core/div_25/u_div_CryTmp_1__12_
*764 ran_seq_gen/tent50_core/div_25/u_div_CryTmp_2__2_
*765 ran_seq_gen/tent50_core/div_25/u_div_CryTmp_2__3_
*766 ran_seq_gen/tent50_core/div_25/u_div_CryTmp_2__4_
*767 ran_seq_gen/tent50_core/div_25/u_div_CryTmp_2__5_
*768 ran_seq_gen/tent50_core/div_25/u_div_CryTmp_2__6_
*769 ran_seq_gen/tent50_core/div_25/u_div_CryTmp_2__7_
*770 ran_seq_gen/tent50_core/div_25/u_div_CryTmp_2__8_
*771 ran_seq_gen/tent50_core/div_25/u_div_CryTmp_2__9_
*772 ran_seq_gen/tent50_core/div_25/u_div_CryTmp_2__10_
*773 ran_seq_gen/tent50_core/div_25/u_div_CryTmp_2__11_
*774 ran_seq_gen/tent50_core/div_25/u_div_CryTmp_2__12_
*775 ran_seq_gen/tent50_core/div_25/u_div_CryTmp_3__2_
*776 ran_seq_gen/tent50_core/div_25/u_div_CryTmp_3__3_
*777 ran_seq_gen/tent50_core/div_25/u_div_CryTmp_3__4_
*778 ran_seq_gen/tent50_core/div_25/u_div_CryTmp_3__5_
*779 ran_seq_gen/tent50_core/div_25/u_div_CryTmp_3__6_
*780 ran_seq_gen/tent50_core/div_25/u_div_CryTmp_3__7_
*781 ran_seq_gen/tent50_core/div_25/u_div_CryTmp_3__8_
*782 ran_seq_gen/tent50_core/div_25/u_div_CryTmp_3__9_
*783 ran_seq_gen/tent50_core/div_25/u_div_CryTmp_3__10_
*784 ran_seq_gen/tent50_core/div_25/u_div_CryTmp_3__11_
*785 ran_seq_gen/tent50_core/div_25/u_div_CryTmp_3__12_
*786 ran_seq_gen/tent50_core/div_25/u_div_CryTmp_4__2_
*787 ran_seq_gen/tent50_core/div_25/u_div_CryTmp_4__3_
*788 ran_seq_gen/tent50_core/div_25/u_div_CryTmp_4__4_
*789 ran_seq_gen/tent50_core/div_25/u_div_CryTmp_4__5_
*790 ran_seq_gen/tent50_core/div_25/u_div_CryTmp_4__6_
*791 ran_seq_gen/tent50_core/div_25/u_div_CryTmp_4__7_
*792 ran_seq_gen/tent50_core/div_25/u_div_CryTmp_4__8_
*793 ran_seq_gen/tent50_core/div_25/u_div_CryTmp_4__9_
*794 ran_seq_gen/tent50_core/div_25/u_div_CryTmp_4__10_
*795 ran_seq_gen/tent50_core/div_25/u_div_CryTmp_4__11_
*796 ran_seq_gen/tent50_core/div_25/u_div_CryTmp_4__12_
*797 ran_seq_gen/tent50_core/div_25/u_div_CryTmp_5__2_
*798 ran_seq_gen/tent50_core/div_25/u_div_CryTmp_5__3_
*799 ran_seq_gen/tent50_core/div_25/u_div_CryTmp_5__4_
*800 ran_seq_gen/tent50_core/div_25/u_div_CryTmp_5__5_
*801 ran_seq_gen/tent50_core/div_25/u_div_CryTmp_5__6_
*802 ran_seq_gen/tent50_core/div_25/u_div_CryTmp_5__7_
*803 ran_seq_gen/tent50_core/div_25/u_div_CryTmp_5__8_
*804 ran_seq_gen/tent50_core/div_25/u_div_CryTmp_5__9_